Pcp_File_Version=4
*** BLOCK A: BASIC INFORMATION *****************************************
Heading
Welcome to HYDRUS-1D
LUnit  TUnit  MUnit  (indicated units are obligatory for all input data)
m
days
mmol
lWat   lChem lTemp  lSink lRoot lShort lWDep lScreen lVariabBC lEquil lInverse
 t     f     f      f     f     t      f     t       f         t         f
lSnow  lHP1   lMeteo  lVapor lActiveU lFluxes lIrrig  lDummy  lDummy  lDummy
 f       f       f       f       f       t       f       f       f       f
NMat    NLay  CosAlpha
  1       1       1
*** BLOCK B: WATER FLOW INFORMATION ************************************
MaxIt   TolTh   TolH       (maximum number of iterations and tolerances)
  10    0.001   0.01
TopInf WLayer KodTop InitCond
 f     f      -1       f
BotInf qGWLF FreeD SeepF KodBot DrainF  hSeep
 f     f     f     f     -1      f      0
         rTop         rBot        rRoot
           0            0            0
    hTab1   hTabN
    1e-008     100
    Model   Hysteresis
      0          0
   thr     ths    Alfa      n         Ks       l
  0.045     0.3    2.94     2.5          1     0.5 
*** BLOCK C: TIME INFORMATION ******************************************
        dt       dtMin       dtMax     DMul    DMul2  ItMin ItMax  MPL
     1e-005      1e-007        0.01     1.3     0.7     3     7     1
      tInit        tMax
          0           1
  lPrintD  nPrintSteps tPrintInterval lEnter
     t           1             1       t
TPrint(1),TPrint(2),...,TPrint(MPL)
          1 
*** END OF INPUT FILE 'SELECTOR.IN' ************************************
